test/data/matpower/multi_nw/bus_37/pypsa-eur_multinetwork_37/mpc_004_023.m
function mpc = mpc_004_023
%MPC_004_023	Extended MATPOWER case file generated from aggregated PyPSA generator and load data
%	Period: 4 	Weight: 49
%	Time step: 23

%%	MATPOWER Case Format : Version 2
mpc.version = '2';

%% system MVA base
mpc.baseMVA = 100;

%% Weight
mpc.weight = 49;

%% bus data
%	bus_i	type	Pd	Qd	Gs	Bs	area	Vm	Va	baseKV	zone	Vmax	Vmin
mpc.bus = [
	1	2	396.76577648501865	0.0	0.0	0.0	1	1.0	0.0	230.0	1	1.1	0.9;	%AL1 0
	2	2	5634.956076912416	0.0	0.0	0.0	2	1.0	0.0	230.0	1	1.1	0.9;	%AT1 0
	3	2	1078.988981896441	0.0	0.0	0.0	3	1.0	0.0	230.0	1	1.1	0.9;	%BA1 0
	4	2	7491.399233162613	0.0	0.0	0.0	4	1.0	0.0	230.0	1	1.1	0.9;	%BE1 0
	5	2	3185.2189705213414	0.0	0.0	0.0	5	1.0	0.0	230.0	1	1.1	0.9;	%BG1 0
	6	2	4126.535549355381	0.0	0.0	0.0	6	1.0	0.0	230.0	1	1.1	0.9;	%CH1 0
	7	2	5280.179340803957	0.0	0.0	0.0	7	1.0	0.0	230.0	1	1.1	0.9;	%CZ1 0
	8	2	42676.391370724974	0.0	0.0	0.0	8	1.0	0.0	230.0	1	1.1	0.9;	%DE1 0
	9	2	1455.3515805895922	0.0	0.0	0.0	9	1.0	0.0	230.0	1	1.1	0.9;	%DK1 0
	10	2	1111.483395543279	0.0	0.0	0.0	10	1.0	0.0	230.0	1	1.1	0.9;	%DK2 0
	11	2	571.1651431565762	0.0	0.0	0.0	11	1.0	0.0	230.0	1	1.1	0.9;	%EE6 0
	12	2	23481.976868446534	0.0	0.0	0.0	12	1.0	0.0	230.0	1	1.1	0.9;	%ES1 0
	13	2	507.55228542838057	0.0	0.0	0.0	13	1.0	0.0	230.0	1	1.1	0.9;	%ES4 0
	14	2	7266.603375496454	0.0	0.0	0.0	14	1.0	0.0	230.0	1	1.1	0.9;	%FI2 0
	15	2	37081.74137438333	0.0	0.0	0.0	15	1.0	0.0	230.0	1	1.1	0.9;	%FR1 0
	16	2	25581.461947773732	0.0	0.0	0.0	16	1.0	0.0	230.0	1	1.1	0.9;	%GB0 0
	17	2	629.965824473981	0.0	0.0	0.0	17	1.0	0.0	230.0	1	1.1	0.9;	%GB5 0
	18	2	5229.003434293519	0.0	0.0	0.0	18	1.0	0.0	230.0	1	1.1	0.9;	%GR1 0
	19	2	1561.5576332080748	0.0	0.0	0.0	19	1.0	0.0	230.0	1	1.1	0.9;	%HR1 0
	20	2	3585.7132304190222	0.0	0.0	0.0	20	1.0	0.0	230.0	1	1.1	0.9;	%HU1 0
	21	2	2213.7096767906505	0.0	0.0	0.0	21	1.0	0.0	230.0	1	1.1	0.9;	%IE5 0
	22	2	28323.829394276217	0.0	0.0	0.0	22	1.0	0.0	230.0	1	1.1	0.9;	%IT1 0
	23	2	1506.3483245574157	0.0	0.0	0.0	23	1.0	0.0	230.0	1	1.1	0.9;	%IT3 0
	24	2	841.4459870548169	0.0	0.0	0.0	24	1.0	0.0	230.0	1	1.1	0.9;	%LT6 0
	25	2	604.6936282628395	0.0	0.0	0.0	25	1.0	0.0	230.0	1	1.1	0.9;	%LU1 0
	26	2	527.7638863120897	0.0	0.0	0.0	26	1.0	0.0	230.0	1	1.1	0.9;	%LV6 0
	27	2	324.9955639966197	0.0	0.0	0.0	27	1.0	0.0	230.0	1	1.1	0.9;	%ME1 0
	28	2	716.1138404851556	0.0	0.0	0.0	28	1.0	0.0	230.0	1	1.1	0.9;	%MK1 0
	29	2	10148.592405649717	0.0	0.0	0.0	29	1.0	0.0	230.0	1	1.1	0.9;	%NL1 0
	30	2	9470.012344457147	0.0	0.0	0.0	30	1.0	0.0	230.0	1	1.1	0.9;	%NO2 0
	31	2	13113.138795659308	0.0	0.0	0.0	31	1.0	0.0	230.0	1	1.1	0.9;	%PL1 0
	32	2	4828.373002851999	0.0	0.0	0.0	32	1.0	0.0	230.0	1	1.1	0.9;	%PT1 0
	33	2	4481.308857765218	0.0	0.0	0.0	33	1.0	0.0	230.0	1	1.1	0.9;	%RO1 0
	34	2	3185.444548370134	0.0	0.0	0.0	34	1.0	0.0	230.0	1	1.1	0.9;	%RS1 0
	35	2	10531.97706992292	0.0	0.0	0.0	35	1.0	0.0	230.0	1	1.1	0.9;	%SE2 0
	36	2	1253.2030919111517	0.0	0.0	0.0	36	1.0	0.0	230.0	1	1.1	0.9;	%SI1 0
	37	2	2564.275820546808	0.0	0.0	0.0	37	1.0	0.0	230.0	1	1.1	0.9;	%SK1 0
];

%% generator data
%	bus	Pg	Qg	Qmax	Qmin	Vg	mBase	status	Pmax	Pmin	H	n0	nE	nE_max	P_b_nom	carrier
mpc.gen = [
	1	0.0	0.0	0.0	-0.0	1.0	100.0	1	224.0	78.4	5.0	0	0	500	224.0	0;	%AL1 0 CCGT
	1	0.0	0.0	0.0	-0.0	1.0	100.0	1	224.0	78.4	2.8	0	0	500	224.0	1;	%AL1 0 OCGT
	1	0.0	0.0	0.0	-0.0	1.0	100.0	1	0.0	0.0	0.0	0	0	5500	17.0	2;	%AL1 0 offwind
	1	0.0	0.0	0.0	-0.0	1.0	100.0	1	44.92727152904733	0.0	2.8	2	2	2	50.0	3;	%AL1 0 oil
	1	0.0	0.0	0.0	-0.0	1.0	100.0	1	0.0	0.0	0.0	0	0	2500	38.0	4;	%AL1 0 onwind
	1	0.0	0.0	0.0	-0.0	1.0	100.0	1	0.8366896266446827	0.0	3.5	2	2	2	26.0	5;	%AL1 0 ror
	1	0.0	0.0	0.0	-0.0	1.0	100.0	1	0.0	0.0	0.0	1	1	3400	28.0	6;	%AL1 0 solar
	2	0.0	0.0	0.0	-0.0	1.0	100.0	1	217.66500000000002	78.4	5.0	20	20	13100	224.0	0;	%AT1 0 CCGT
	2	0.0	0.0	0.0	-0.0	1.0	100.0	1	224.0	78.4	2.8	0	0	13100	224.0	1;	%AT1 0 OCGT
	2	0.0	0.0	0.0	-0.0	1.0	100.0	1	0.8704840577731495	0.0	0.0	85	85	76700	38.0	4;	%AT1 0 onwind
	2	0.0	0.0	0.0	-0.0	1.0	100.0	1	10.880720437109103	0.0	3.5	184	184	184	26.0	5;	%AT1 0 ror
	2	0.0	0.0	0.0	-0.0	1.0	100.0	1	0.0	0.0	0.0	80	80	104100	28.0	6;	%AT1 0 solar
	3	0.0	0.0	0.0	-0.0	1.0	100.0	1	224.0	78.4	5.0	0	0	1100	224.0	0;	%BA1 0 CCGT
	3	0.0	0.0	0.0	-0.0	1.0	100.0	1	224.0	78.4	2.8	0	0	1100	224.0	1;	%BA1 0 OCGT
	3	0.0	0.0	0.0	-0.0	1.0	100.0	1	209.5	110.0	3.0	4	4	4	275.0	7;	%BA1 0 lignite
	3	0.0	0.0	0.0	-0.0	1.0	100.0	1	0.049631251884624396	0.0	0.0	3	3	6100	38.0	4;	%BA1 0 onwind
	3	0.0	0.0	0.0	-0.0	1.0	100.0	1	0.0	0.0	0.0	2	2	8200	28.0	6;	%BA1 0 solar
	4	0.0	0.0	0.0	-0.0	1.0	100.0	1	219.53809523809525	78.4	5.0	21	21	13800	224.0	0;	%BE1 0 CCGT
	4	0.0	0.0	0.0	-0.0	1.0	100.0	1	224.0	78.4	2.8	0	0	13800	224.0	1;	%BE1 0 OCGT
	4	0.0	0.0	0.0	-0.0	1.0	100.0	1	9.925925925925926	2.0436	2.8	27	27	27	10.0	8;	%BE1 0 biomass
	4	0.0	0.0	0.0	-0.0	1.0	100.0	1	4.508914161521902	0.0	0.0	137	137	180700	17.0	2;	%BE1 0 offwind
	4	0.0	0.0	0.0	-0.0	1.0	100.0	1	2.198117817570968	0.0	0.0	65	65	80900	38.0	4;	%BE1 0 onwind
	4	0.0	0.0	0.0	-0.0	1.0	100.0	1	3.2250290461272146	0.0	3.5	4	4	4	26.0	5;	%BE1 0 ror
	4	0.0	0.0	0.0	-0.0	1.0	100.0	1	0.0	0.0	0.0	202	202	109700	28.0	6;	%BE1 0 solar
	5	0.0	0.0	0.0	-0.0	1.0	100.0	1	224.0	78.4	5.0	0	0	5000	224.0	0;	%BG1 0 CCGT
	5	0.0	0.0	0.0	-0.0	1.0	100.0	1	224.0	78.4	2.8	0	0	5000	224.0	1;	%BG1 0 OCGT
	5	0.0	0.0	0.0	-0.0	1.0	100.0	1	160.41703044199232	89.375	3.0	1	1	1	275.0	9;	%BG1 0 coal
	5	0.0	0.0	0.0	-0.0	1.0	100.0	1	242.52278758367152	110.0	3.0	6	6	6	275.0	7;	%BG1 0 lignite
	5	0.0	0.0	0.0	-0.0	1.0	100.0	1	693.3333333333334	500.0	5.5	3	3	3	1000.0	10;	%BG1 0 nuclear
	5	0.0	0.0	0.0	-0.0	1.0	100.0	1	0.14380382774769782	0.0	0.0	0	0	65700	17.0	2;	%BG1 0 offwind
	5	0.0	0.0	0.0	-0.0	1.0	100.0	1	0.37697012899152554	0.0	0.0	19	19	29400	38.0	4;	%BG1 0 onwind
	5	0.0	0.0	0.0	-0.0	1.0	100.0	1	0.9539003787464517	0.0	3.5	5	5	5	26.0	5;	%BG1 0 ror
	5	0.0	0.0	0.0	-0.0	1.0	100.0	1	0.0	0.0	0.0	39	39	39900	28.0	6;	%BG1 0 solar
	6	0.0	0.0	0.0	-0.0	1.0	100.0	1	224.0	78.4	5.0	0	0	9700	224.0	0;	%CH1 0 CCGT
	6	0.0	0.0	0.0	-0.0	1.0	100.0	1	224.0	78.4	2.8	0	0	9700	224.0	1;	%CH1 0 OCGT
	6	0.0	0.0	0.0	-0.0	1.0	100.0	1	9.861652941176471	2.0436	2.8	34	34	34	10.0	8;	%CH1 0 biomass
	6	0.0	0.0	0.0	-0.0	1.0	100.0	1	990.0	500.0	5.5	3	3	3	1000.0	10;	%CH1 0 nuclear
	6	0.0	0.0	0.0	-0.0	1.0	100.0	1	0.03315627202931704	0.0	0.0	3	3	56800	38.0	4;	%CH1 0 onwind
	6	0.0	0.0	0.0	-0.0	1.0	100.0	1	5.984553991459367	0.0	3.5	171	171	171	26.0	5;	%CH1 0 ror
	6	0.0	0.0	0.0	-0.0	1.0	100.0	1	0.0	0.0	0.0	106	106	77100	28.0	6;	%CH1 0 solar
	7	0.0	0.0	0.0	-0.0	1.0	100.0	1	197.38	78.4	5.0	5	5	10200	224.0	0;	%CZ1 0 CCGT
	7	0.0	0.0	0.0	-0.0	1.0	100.0	1	224.0	78.4	2.8	0	0	10200	224.0	1;	%CZ1 0 OCGT
	7	0.0	0.0	0.0	-0.0	1.0	100.0	1	259.384773901276	110.0	3.0	14	14	14	275.0	7;	%CZ1 0 lignite
	7	0.0	0.0	0.0	-0.0	1.0	100.0	1	858.0	500.0	5.5	5	5	5	1000.0	10;	%CZ1 0 nuclear
	7	0.0	0.0	0.0	-0.0	1.0	100.0	1	0.5615824787891363	0.0	0.0	9	9	59800	38.0	4;	%CZ1 0 onwind
	7	0.0	0.0	0.0	-0.0	1.0	100.0	1	5.431573865578188	0.0	3.5	2	2	2	26.0	5;	%CZ1 0 ror
	7	0.0	0.0	0.0	-0.0	1.0	100.0	1	0.0	0.0	0.0	75	75	81200	28.0	6;	%CZ1 0 solar
	8	0.0	0.0	0.0	-0.0	1.0	100.0	1	223.36530288461537	78.4	5.0	104	104	160700	224.0	0;	%DE1 0 CCGT
	8	0.0	0.0	0.0	-0.0	1.0	100.0	1	78.4	78.4	2.8	1	1	160700	224.0	1;	%DE1 0 OCGT
	8	0.0	0.0	0.0	-0.0	1.0	100.0	1	9.993322844919787	2.0436	2.8	748	748	748	10.0	8;	%DE1 0 biomass
	8	0.0	0.0	0.0	-0.0	1.0	100.0	1	271.4126525154921	89.375	3.0	33	33	33	275.0	9;	%DE1 0 coal
	8	0.0	0.0	0.0	-0.0	1.0	100.0	1	272.8539328301224	110.0	3.0	77	77	77	275.0	7;	%DE1 0 lignite
	8	0.0	0.0	0.0	-0.0	1.0	100.0	1	7.3101052906078925	0.0	0.0	456	456	2117500	17.0	2;	%DE1 0 offwind
	8	0.0	0.0	0.0	-0.0	1.0	100.0	1	48.949999999999996	0.0	2.8	18	18	18	50.0	3;	%DE1 0 oil
	8	0.0	0.0	0.0	-0.0	1.0	100.0	1	2.7705959259308184	0.0	0.0	1431	1431	947300	38.0	4;	%DE1 0 onwind
	8	0.0	0.0	0.0	-0.0	1.0	100.0	1	12.967671738454728	0.0	3.5	99	99	99	26.0	5;	%DE1 0 ror
	8	0.0	0.0	0.0	-0.0	1.0	100.0	1	0.0	0.0	0.0	1919	1919	1285600	28.0	6;	%DE1 0 solar
	9	0.0	0.0	0.0	-0.0	1.0	100.0	1	166.73333333333332	78.4	5.0	3	3	7200	224.0	0;	%DK1 0 CCGT
	9	0.0	0.0	0.0	-0.0	1.0	100.0	1	224.0	78.4	2.8	0	0	7200	224.0	1;	%DK1 0 OCGT
	9	0.0	0.0	0.0	-0.0	1.0	100.0	1	9.538461538461538	2.0436	2.8	13	13	13	10.0	8;	%DK1 0 biomass
	9	0.0	0.0	0.0	-0.0	1.0	100.0	1	231.37136217774997	89.375	3.0	5	5	5	275.0	9;	%DK1 0 coal
	9	0.0	0.0	0.0	-0.0	1.0	100.0	1	5.977868818970694	0.0	0.0	82	82	93900	17.0	2;	%DK1 0 offwind
	9	0.0	0.0	0.0	-0.0	1.0	100.0	1	2.2533161837157936	0.0	0.0	100	100	42000	38.0	4;	%DK1 0 onwind
	9	0.0	0.0	0.0	-0.0	1.0	100.0	1	0.0	0.0	0.0	37	37	57000	28.0	6;	%DK1 0 solar
	10	0.0	0.0	0.0	-0.0	1.0	100.0	1	187.0	78.4	5.0	4	4	2000	224.0	0;	%DK2 0 CCGT
	10	0.0	0.0	0.0	-0.0	1.0	100.0	1	224.0	78.4	2.8	0	0	2000	224.0	1;	%DK2 0 OCGT
	10	0.0	0.0	0.0	-0.0	1.0	100.0	1	10.0	2.0436	2.8	7	7	7	10.0	8;	%DK2 0 biomass
	10	0.0	0.0	0.0	-0.0	1.0	100.0	1	4.085347924293455	0.0	0.0	19	19	25400	17.0	2;	%DK2 0 offwind
	10	0.0	0.0	0.0	-0.0	1.0	100.0	1	3.096118210159634	0.0	0.0	20	20	11400	38.0	4;	%DK2 0 onwind
	10	0.0	0.0	0.0	-0.0	1.0	100.0	1	0.0	0.0	0.0	10	10	15500	28.0	6;	%DK2 0 solar
	11	0.0	0.0	0.0	-0.0	1.0	100.0	1	224.0	78.4	5.0	0	0	700	224.0	0;	%EE6 0 CCGT
	11	0.0	0.0	0.0	-0.0	1.0	100.0	1	224.0	78.4	2.8	0	0	700	224.0	1;	%EE6 0 OCGT
	11	0.0	0.0	0.0	-0.0	1.0	100.0	1	1.8046503466705692	0.0	0.0	0	0	9300	17.0	2;	%EE6 0 offwind
	11	0.0	0.0	0.0	-0.0	1.0	100.0	1	1.5437851739523123	0.0	0.0	9	9	4200	38.0	4;	%EE6 0 onwind
	11	0.0	0.0	0.0	-0.0	1.0	100.0	1	0.0	0.0	0.0	5	5	5600	28.0	6;	%EE6 0 solar
	12	0.0	0.0	0.0	-0.0	1.0	100.0	1	223.20823762376236	78.4	5.0	101	101	63100	224.0	0;	%ES1 0 CCGT
	12	0.0	0.0	0.0	-0.0	1.0	100.0	1	224.0	78.4	2.8	0	0	63100	224.0	1;	%ES1 0 OCGT
	12	0.0	0.0	0.0	-0.0	1.0	100.0	1	242.28938995344714	89.375	3.0	8	8	8	275.0	9;	%ES1 0 coal
	12	0.0	0.0	0.0	-0.0	1.0	100.0	1	889.65	500.0	5.5	8	8	8	1000.0	10;	%ES1 0 nuclear
	12	0.0	0.0	0.0	-0.0	1.0	100.0	1	0.7273178373675303	0.0	0.0	1	1	831300	17.0	2;	%ES1 0 offwind
	12	0.0	0.0	0.0	-0.0	1.0	100.0	1	45.29516666666667	0.0	2.8	6	6	6	50.0	3;	%ES1 0 oil
	12	0.0	0.0	0.0	-0.0	1.0	100.0	1	2.7461449103829407	0.0	0.0	706	706	371900	38.0	4;	%ES1 0 onwind
	12	0.0	0.0	0.0	-0.0	1.0	100.0	1	1.4457847182590933	0.0	3.5	11	11	11	26.0	5;	%ES1 0 ror
	12	0.0	0.0	0.0	-0.0	1.0	100.0	1	0.0	0.0	0.0	418	418	504800	28.0	6;	%ES1 0 solar
	13	0.0	0.0	0.0	-0.0	1.0	100.0	1	193.8	78.4	5.0	5	5	1400	224.0	0;	%ES4 0 CCGT
	13	0.0	0.0	0.0	-0.0	1.0	100.0	1	224.0	78.4	2.8	0	0	1400	224.0	1;	%ES4 0 OCGT
	13	0.0	0.0	0.0	-0.0	1.0	100.0	1	4.821955132200772e-05	0.0	0.0	1	1	18000	17.0	2;	%ES4 0 offwind
	13	0.0	0.0	0.0	-0.0	1.0	100.0	1	48.8	0.0	2.8	4	4	4	50.0	3;	%ES4 0 oil
	13	0.0	0.0	0.0	-0.0	1.0	100.0	1	0.0	0.0	0.0	7	7	8100	38.0	4;	%ES4 0 onwind
	13	0.0	0.0	0.0	-0.0	1.0	100.0	1	0.0	0.0	0.0	4	4	10900	28.0	6;	%ES4 0 solar
	14	0.0	0.0	0.0	-0.0	1.0	100.0	1	214.725	78.4	5.0	8	8	11400	224.0	0;	%FI2 0 CCGT
	14	0.0	0.0	0.0	-0.0	1.0	100.0	1	224.0	78.4	2.8	0	0	11400	224.0	1;	%FI2 0 OCGT
	14	0.0	0.0	0.0	-0.0	1.0	100.0	1	9.71875	2.0436	2.8	32	32	32	10.0	8;	%FI2 0 biomass
	14	0.0	0.0	0.0	-0.0	1.0	100.0	1	238.0441221846116	89.375	3.0	5	5	5	275.0	9;	%FI2 0 coal
	14	0.0	0.0	0.0	-0.0	1.0	100.0	1	872.4	500.0	5.5	5	5	5	1000.0	10;	%FI2 0 nuclear
	14	0.0	0.0	0.0	-0.0	1.0	100.0	1	5.435791429149812	0.0	0.0	5	5	149100	17.0	2;	%FI2 0 offwind
	14	0.0	0.0	0.0	-0.0	1.0	100.0	1	3.399548982612912	0.0	0.0	84	84	66700	38.0	4;	%FI2 0 onwind
	14	0.0	0.0	0.0	-0.0	1.0	100.0	1	11.884166957846642	0.0	3.5	56	56	56	26.0	5;	%FI2 0 ror
	14	0.0	0.0	0.0	-0.0	1.0	100.0	1	0.0	0.0	0.0	14	14	90600	28.0	6;	%FI2 0 solar
	15	0.0	0.0	0.0	-0.0	1.0	100.0	1	218.42857142857142	78.4	5.0	28	28	74600	224.0	0;	%FR1 0 CCGT
	15	0.0	0.0	0.0	-0.0	1.0	100.0	1	224.0	78.4	2.8	0	0	74600	224.0	1;	%FR1 0 OCGT
	15	0.0	0.0	0.0	-0.0	1.0	100.0	1	9.940986538461537	2.0436	2.8	104	104	104	10.0	8;	%FR1 0 biomass
	15	0.0	0.0	0.0	-0.0	1.0	100.0	1	990.0	500.0	5.5	41	41	41	1000.0	10;	%FR1 0 nuclear
	15	0.0	0.0	0.0	-0.0	1.0	100.0	1	0.20455669372856425	0.0	0.0	1	1	982100	17.0	2;	%FR1 0 offwind
	15	0.0	0.0	0.0	-0.0	1.0	100.0	1	42.333333333333336	0.0	2.8	6	6	6	50.0	3;	%FR1 0 oil
	15	0.0	0.0	0.0	-0.0	1.0	100.0	1	2.9711870853803375	0.0	0.0	452	452	439400	38.0	4;	%FR1 0 onwind
	15	0.0	0.0	0.0	-0.0	1.0	100.0	1	7.778418057337951	0.0	3.5	257	257	257	26.0	5;	%FR1 0 ror
	15	0.0	0.0	0.0	-0.0	1.0	100.0	1	0.0	0.0	0.0	417	417	596300	28.0	6;	%FR1 0 solar
	16	0.0	0.0	0.0	-0.0	1.0	100.0	1	223.36658709596236	78.4	5.0	137	137	81100	224.0	0;	%GB0 0 CCGT
	16	0.0	0.0	0.0	-0.0	1.0	100.0	1	224.0	78.4	2.8	0	0	81100	224.0	1;	%GB0 0 OCGT
	16	0.0	0.0	0.0	-0.0	1.0	100.0	1	9.998127925117004	2.0436	2.8	641	641	641	10.0	8;	%GB0 0 biomass
	16	0.0	0.0	0.0	-0.0	1.0	100.0	1	270.8333333333333	89.375	3.0	12	12	12	275.0	9;	%GB0 0 coal
	16	0.0	0.0	0.0	-0.0	1.0	100.0	1	918.1428571428571	500.0	5.5	7	7	7	1000.0	10;	%GB0 0 nuclear
	16	0.0	0.0	0.0	-0.0	1.0	100.0	1	13.275348674418558	0.0	0.0	570	570	1068200	17.0	2;	%GB0 0 offwind
	16	0.0	0.0	0.0	-0.0	1.0	100.0	1	4.420740207146828	0.0	0.0	343	343	477900	38.0	4;	%GB0 0 onwind
	16	0.0	0.0	0.0	-0.0	1.0	100.0	1	0.6004977012557897	0.0	3.5	339	339	339	26.0	5;	%GB0 0 ror
	16	0.0	0.0	0.0	-0.0	1.0	100.0	1	0.0	0.0	0.0	451	451	648600	28.0	6;	%GB0 0 solar
	17	0.0	0.0	0.0	-0.0	1.0	100.0	1	199.66666666666666	78.4	5.0	6	6	3500	224.0	0;	%GB5 0 CCGT
	17	0.0	0.0	0.0	-0.0	1.0	100.0	1	224.0	78.4	2.8	0	0	3500	224.0	1;	%GB5 0 OCGT
	17	0.0	0.0	0.0	-0.0	1.0	100.0	1	9.675	2.0436	2.8	4	4	4	10.0	8;	%GB5 0 biomass
	17	0.0	0.0	0.0	-0.0	1.0	100.0	1	12.03799207695366	0.0	0.0	42	42	45600	17.0	2;	%GB5 0 offwind
	17	0.0	0.0	0.0	-0.0	1.0	100.0	1	2.0207498160775397	0.0	0.0	29	29	20400	38.0	4;	%GB5 0 onwind
	17	0.0	0.0	0.0	-0.0	1.0	100.0	1	0.0	0.0	0.0	31	31	27700	28.0	6;	%GB5 0 solar
	18	0.0	0.0	0.0	-0.0	1.0	100.0	1	219.4811754872973	78.4	5.0	19	19	11100	224.0	0;	%GR1 0 CCGT
	18	0.0	0.0	0.0	-0.0	1.0	100.0	1	224.0	78.4	2.8	0	0	11100	224.0	1;	%GR1 0 OCGT
	18	0.0	0.0	0.0	-0.0	1.0	100.0	1	220.0	110.0	3.0	3	3	3	275.0	7;	%GR1 0 lignite
	18	0.0	0.0	0.0	-0.0	1.0	100.0	1	6.2731441812058275	0.0	0.0	0	0	145800	17.0	2;	%GR1 0 offwind
	18	0.0	0.0	0.0	-0.0	1.0	100.0	1	47.24311026765802	0.0	2.8	2	2	2	50.0	3;	%GR1 0 oil
	18	0.0	0.0	0.0	-0.0	1.0	100.0	1	2.2018817077250277	0.0	0.0	109	109	65200	38.0	4;	%GR1 0 onwind
	18	0.0	0.0	0.0	-0.0	1.0	100.0	1	0.3894836848408359	0.0	3.5	4	4	4	26.0	5;	%GR1 0 ror
	18	0.0	0.0	0.0	-0.0	1.0	100.0	1	0.0	0.0	0.0	116	116	88500	28.0	6;	%GR1 0 solar
	19	0.0	0.0	0.0	-0.0	1.0	100.0	1	78.4	78.4	5.0	1	1	1400	224.0	0;	%HR1 0 CCGT
	19	0.0	0.0	0.0	-0.0	1.0	100.0	1	224.0	78.4	2.8	0	0	1400	224.0	1;	%HR1 0 OCGT
	19	0.0	0.0	0.0	-0.0	1.0	100.0	1	0.35447306104291937	0.0	0.0	0	0	18300	17.0	2;	%HR1 0 offwind
	19	0.0	0.0	0.0	-0.0	1.0	100.0	1	1.1003037855858662	0.0	0.0	21	21	8200	38.0	4;	%HR1 0 onwind
	19	0.0	0.0	0.0	-0.0	1.0	100.0	1	1.004550376451804	0.0	3.5	11	11	11	26.0	5;	%HR1 0 ror
	19	0.0	0.0	0.0	-0.0	1.0	100.0	1	0.0	0.0	0.0	4	4	11100	28.0	6;	%HR1 0 solar
	20	0.0	0.0	0.0	-0.0	1.0	100.0	1	215.52499999999998	78.4	5.0	8	8	5700	224.0	0;	%HU1 0 CCGT
	20	0.0	0.0	0.0	-0.0	1.0	100.0	1	224.0	78.4	2.8	0	0	5700	224.0	1;	%HU1 0 OCGT
	20	0.0	0.0	0.0	-0.0	1.0	100.0	1	230.4842391407936	89.375	3.0	1	1	1	275.0	9;	%HU1 0 coal
	20	0.0	0.0	0.0	-0.0	1.0	100.0	1	949.45	500.0	5.5	2	2	2	1000.0	10;	%HU1 0 nuclear
	20	0.0	0.0	0.0	-0.0	1.0	100.0	1	42.5	0.0	2.8	4	4	4	50.0	3;	%HU1 0 oil
	20	0.0	0.0	0.0	-0.0	1.0	100.0	1	2.4672998633588925	0.0	0.0	9	9	33300	38.0	4;	%HU1 0 onwind
	20	0.0	0.0	0.0	-0.0	1.0	100.0	1	3.9024069476352565	0.0	3.5	1	1	1	26.0	5;	%HU1 0 ror
	20	0.0	0.0	0.0	-0.0	1.0	100.0	1	0.0	0.0	0.0	70	70	45200	28.0	6;	%HU1 0 solar
	21	0.0	0.0	0.0	-0.0	1.0	100.0	1	222.05263157894737	78.4	5.0	19	19	8300	224.0	0;	%IE5 0 CCGT
	21	0.0	0.0	0.0	-0.0	1.0	100.0	1	224.0	78.4	2.8	0	0	8300	224.0	1;	%IE5 0 OCGT
	21	0.0	0.0	0.0	-0.0	1.0	100.0	1	253.0	110.0	3.0	1	1	1	275.0	7;	%IE5 0 lignite
	21	0.0	0.0	0.0	-0.0	1.0	100.0	1	6.347488963204223	0.0	0.0	2	2	108700	17.0	2;	%IE5 0 offwind
	21	0.0	0.0	0.0	-0.0	1.0	100.0	1	41.6	0.0	2.8	5	5	5	50.0	3;	%IE5 0 oil
	21	0.0	0.0	0.0	-0.0	1.0	100.0	1	1.7738349179927961	0.0	0.0	113	113	48700	38.0	4;	%IE5 0 onwind
	21	0.0	0.0	0.0	-0.0	1.0	100.0	1	2.8079825631473407	0.0	3.5	9	9	9	26.0	5;	%IE5 0 ror
	21	0.0	0.0	0.0	-0.0	1.0	100.0	1	0.0	0.0	0.0	2	2	66000	28.0	6;	%IE5 0 solar
	22	0.0	0.0	0.0	-0.0	1.0	100.0	1	223.67257142857142	78.4	5.0	175	175	67800	224.0	0;	%IT1 0 CCGT
	22	0.0	0.0	0.0	-0.0	1.0	100.0	1	224.0	78.4	2.8	0	0	67800	224.0	1;	%IT1 0 OCGT
	22	0.0	0.0	0.0	-0.0	1.0	100.0	1	9.883645833333333	2.0436	2.8	48	48	48	10.0	8;	%IT1 0 biomass
	22	0.0	0.0	0.0	-0.0	1.0	100.0	1	59.0	0.0	2.8	1	1	1	59.0	11;	%IT1 0 geothermal
	22	0.0	0.0	0.0	-0.0	1.0	100.0	1	1.244992130376155	0.0	0.0	0	0	893000	17.0	2;	%IT1 0 offwind
	22	0.0	0.0	0.0	-0.0	1.0	100.0	1	0.4481329205559825	0.0	0.0	229	229	399500	38.0	4;	%IT1 0 onwind
	22	0.0	0.0	0.0	-0.0	1.0	100.0	1	7.123191437041889	0.0	3.5	273	273	273	26.0	5;	%IT1 0 ror
	22	0.0	0.0	0.0	-0.0	1.0	100.0	1	0.0	0.0	0.0	731	731	542200	28.0	6;	%IT1 0 solar
	23	0.0	0.0	0.0	-0.0	1.0	100.0	1	179.5	78.4	5.0	4	4	4100	224.0	0;	%IT3 0 CCGT
	23	0.0	0.0	0.0	-0.0	1.0	100.0	1	224.0	78.4	2.8	0	0	4100	224.0	1;	%IT3 0 OCGT
	23	0.0	0.0	0.0	-0.0	1.0	100.0	1	9.0	2.0436	2.8	4	4	4	10.0	8;	%IT3 0 biomass
	23	0.0	0.0	0.0	-0.0	1.0	100.0	1	0.30965843953127503	0.0	0.0	0	0	53400	17.0	2;	%IT3 0 offwind
	23	0.0	0.0	0.0	-0.0	1.0	100.0	1	50.0	0.0	2.8	3	3	3	50.0	3;	%IT3 0 oil
	23	0.0	0.0	0.0	-0.0	1.0	100.0	1	0.1609954304756458	0.0	0.0	63	63	23900	38.0	4;	%IT3 0 onwind
	23	0.0	0.0	0.0	-0.0	1.0	100.0	1	5.48154335051741	0.0	3.5	3	3	3	26.0	5;	%IT3 0 ror
	23	0.0	0.0	0.0	-0.0	1.0	100.0	1	0.0	0.0	0.0	43	43	32500	28.0	6;	%IT3 0 solar
	24	0.0	0.0	0.0	-0.0	1.0	100.0	1	209.0	78.4	5.0	5	5	1700	224.0	0;	%LT6 0 CCGT
	24	0.0	0.0	0.0	-0.0	1.0	100.0	1	224.0	78.4	2.8	0	0	1700	224.0	1;	%LT6 0 OCGT
	24	0.0	0.0	0.0	-0.0	1.0	100.0	1	4.395671749170575	0.0	0.0	0	0	21600	17.0	2;	%LT6 0 offwind
	24	0.0	0.0	0.0	-0.0	1.0	100.0	1	3.7860625009817492	0.0	0.0	15	15	9700	38.0	4;	%LT6 0 onwind
	24	0.0	0.0	0.0	-0.0	1.0	100.0	1	6.6497880838632595	0.0	3.5	4	4	4	26.0	5;	%LT6 0 ror
	24	0.0	0.0	0.0	-0.0	1.0	100.0	1	0.0	0.0	0.0	6	6	13100	28.0	6;	%LT6 0 solar
	25	0.0	0.0	0.0	-0.0	1.0	100.0	1	224.0	78.4	5.0	0	0	600	224.0	0;	%LU1 0 CCGT
	25	0.0	0.0	0.0	-0.0	1.0	100.0	1	224.0	78.4	2.8	0	0	600	224.0	1;	%LU1 0 OCGT
	25	0.0	0.0	0.0	-0.0	1.0	100.0	1	7.3335	2.0436	2.8	1	1	1	10.0	8;	%LU1 0 biomass
	25	0.0	0.0	0.0	-0.0	1.0	100.0	1	0.8200628686452164	0.0	0.0	7	7	3300	38.0	4;	%LU1 0 onwind
	25	0.0	0.0	0.0	-0.0	1.0	100.0	1	8.076052794535842	0.0	3.5	2	2	2	26.0	5;	%LU1 0 ror
	25	0.0	0.0	0.0	-0.0	1.0	100.0	1	0.0	0.0	0.0	10	10	4500	28.0	6;	%LU1 0 solar
	26	0.0	0.0	0.0	-0.0	1.0	100.0	1	207.8	78.4	5.0	5	5	2400	224.0	0;	%LV6 0 CCGT
	26	0.0	0.0	0.0	-0.0	1.0	100.0	1	224.0	78.4	2.8	0	0	2400	224.0	1;	%LV6 0 OCGT
	26	0.0	0.0	0.0	-0.0	1.0	100.0	1	3.8920422669738337	0.0	0.0	0	0	31300	17.0	2;	%LV6 0 offwind
	26	0.0	0.0	0.0	-0.0	1.0	100.0	1	1.9588105902873343	0.0	0.0	3	3	14100	38.0	4;	%LV6 0 onwind
	26	0.0	0.0	0.0	-0.0	1.0	100.0	1	2.689499936619458	0.0	3.5	60	60	60	26.0	5;	%LV6 0 ror
	26	0.0	0.0	0.0	-0.0	1.0	100.0	1	0.0	0.0	0.0	1	1	19100	28.0	6;	%LV6 0 solar
	27	0.0	0.0	0.0	-0.0	1.0	100.0	1	224.0	78.4	5.0	0	0	400	224.0	0;	%ME1 0 CCGT
	27	0.0	0.0	0.0	-0.0	1.0	100.0	1	224.0	78.4	2.8	0	0	400	224.0	1;	%ME1 0 OCGT
	27	0.0	0.0	0.0	-0.0	1.0	100.0	1	207.4814722673996	110.0	3.0	1	1	1	275.0	7;	%ME1 0 lignite
	27	0.0	0.0	0.0	-0.0	1.0	100.0	1	0.0	0.0	0.0	0	0	4100	17.0	2;	%ME1 0 offwind
	27	0.0	0.0	0.0	-0.0	1.0	100.0	1	0.0	0.0	0.0	4	4	1800	38.0	4;	%ME1 0 onwind
	27	0.0	0.0	0.0	-0.0	1.0	100.0	1	0.7067014269129535	0.0	3.5	1	1	1	26.0	5;	%ME1 0 ror
	27	0.0	0.0	0.0	-0.0	1.0	100.0	1	0.0	0.0	0.0	1	1	2500	28.0	6;	%ME1 0 solar
	28	0.0	0.0	0.0	-0.0	1.0	100.0	1	224.0	78.4	5.0	0	0	800	224.0	0;	%MK1 0 CCGT
	28	0.0	0.0	0.0	-0.0	1.0	100.0	1	224.0	78.4	2.8	0	0	800	224.0	1;	%MK1 0 OCGT
	28	0.0	0.0	0.0	-0.0	1.0	100.0	1	0.0	0.0	0.0	1	1	4500	38.0	4;	%MK1 0 onwind
	28	0.0	0.0	0.0	-0.0	1.0	100.0	1	0.0	0.0	0.0	4	4	6000	28.0	6;	%MK1 0 solar
	29	0.0	0.0	0.0	-0.0	1.0	100.0	1	222.38863636363638	78.4	5.0	44	44	27800	224.0	0;	%NL1 0 CCGT
	29	0.0	0.0	0.0	-0.0	1.0	100.0	1	224.0	78.4	2.8	0	0	27800	224.0	1;	%NL1 0 OCGT
...
];

%% generator cost data
%	2	startup	shutdown	n	c(n-1)	...	c0	investment
mpc.gencost = [
	2	373165.07586206903	149266.03034482762	3	0.0	1903.9034482758625	0.0	0.0	124078.57953443394;	%AL1 0 CCGT
	2	514048.2439024391	205619.29756097565	3	0.0	2622.69512195122	0.0	0.0	56503.14681164207;	%AL1 0 OCGT
	2	0.0	0.0	3	0.0	0.735	0.0	0.0	17587.28732971639;	%AL1 0 offwind
	2	0.0	0.0	3	0.0	7294.0	0.0	0.0	10591.721249587481;	%AL1 0 oil
	2	0.0	0.0	3	0.0	0.735	0.0	0.0	20423.735558581873;	%AL1 0 onwind
	2	0.0	0.0	3	0.0	0.0	0.0	0.0	43505.096639250965;	%AL1 0 ror
	2	0.0	0.0	3	0.0	0.48999999999999994	0.0	0.0	5576.032162842432;	%AL1 0 solar
	2	371348.0529375171	148539.22117500685	3	0.0	1894.6329231505974	0.0	0.0	124078.57953443391;	%AT1 0 CCGT
	2	514048.2439024391	205619.29756097565	3	0.0	2622.69512195122	0.0	0.0	56503.14681164207;	%AT1 0 OCGT
	2	0.0	0.0	3	0.0	0.7349999999999999	0.0	0.0	20423.735558581873;	%AT1 0 onwind
	2	0.0	0.0	3	0.0	0.0	0.0	0.0	43505.096639250965;	%AT1 0 ror
	2	0.0	0.0	3	0.0	0.4900000000000001	0.0	0.0	5576.032162842433;	%AT1 0 solar
	2	373165.07586206903	149266.03034482762	3	0.0	1903.9034482758625	0.0	0.0	124078.57953443394;	%BA1 0 CCGT
	2	514048.2439024391	205619.29756097565	3	0.0	2622.69512195122	0.0	0.0	56503.14681164207;	%BA1 0 OCGT
	2	165579.16666666663	66231.66666666666	3	0.0	602.1060606060606	0.0	0.0	538348.6370048317;	%BA1 0 lignite
	2	0.0	0.0	3	0.0	0.735	0.0	0.0	20423.735558581873;	%BA1 0 onwind
	2	0.0	0.0	3	0.0	0.4900000000000001	0.0	0.0	5576.032162842433;	%BA1 0 solar
	2	441179.383118452	176471.75324738075	3	0.0	2250.9152199921014	0.0	0.0	124078.57953443394;	%BE1 0 CCGT
	2	514048.2439024392	205619.29756097568	3	0.0	2622.6951219512202	0.0	0.0	56503.14681164207;	%BE1 0 OCGT
	2	3728.4829787234044	1491.393191489362	3	0.0	729.7872340425532	0.0	0.0	15554.874660326695;	%BE1 0 biomass
	2	0.0	0.0	3	0.0	0.7350000000000001	0.0	0.0	18239.551699248317;	%BE1 0 offwind
	2	0.0	0.0	3	0.0	0.7350000000000001	0.0	0.0	20423.735558581873;	%BE1 0 onwind
	2	0.0	0.0	3	0.0	0.0	0.0	0.0	43505.096639250965;	%BE1 0 ror
	2	0.0	0.0	3	0.0	0.4900000000000001	0.0	0.0	5576.032162842432;	%BE1 0 solar
	2	373165.07586206903	149266.03034482762	3	0.0	1903.9034482758625	0.0	0.0	124078.57953443391;	%BG1 0 CCGT
	2	514048.2439024391	205619.29756097565	3	0.0	2622.6951219512193	0.0	0.0	56503.14681164207;	%BG1 0 OCGT
	2	308712.7604166666	123485.10416666666	3	0.0	1381.651515151515	0.0	0.0	538348.6370048317;	%BG1 0 coal
	2	165579.16666666663	66231.66666666664	3	0.0	602.1060606060605	0.0	0.0	538348.6370048317;	%BG1 0 lignite
	2	696950.7575757576	278780.30303030304	3	0.0	557.5606060606061	0.0	0.0	3953408.472794405;	%BG1 0 nuclear
	2	0.0	0.0	3	0.0	0.735	0.0	0.0	18528.450025188176;	%BG1 0 offwind
	2	0.0	0.0	3	0.0	0.7349999999999999	0.0	0.0	20423.735558581873;	%BG1 0 onwind
	2	0.0	0.0	3	0.0	0.0	0.0	0.0	43505.096639250965;	%BG1 0 ror
	2	0.0	0.0	3	0.0	0.48999999999999994	0.0	0.0	5576.032162842432;	%BG1 0 solar
	2	373165.07586206903	149266.0303448276	3	0.0	1903.9034482758623	0.0	0.0	124078.57953443391;	%CH1 0 CCGT
	2	514048.2439024391	205619.29756097565	3	0.0	2622.6951219512193	0.0	0.0	56503.146811642066;	%CH1 0 OCGT
	2	3728.4829787234044	1491.393191489362	3	0.0	729.7872340425532	0.0	0.0	15554.874660326695;	%CH1 0 biomass
	2	696950.7575757576	278780.30303030304	3	0.0	557.5606060606061	0.0	0.0	3953408.472794405;	%CH1 0 nuclear
	2	0.0	0.0	3	0.0	0.7349999999999999	0.0	0.0	20423.735558581873;	%CH1 0 onwind
	2	0.0	0.0	3	0.0	0.0	0.0	0.0	43505.096639250965;	%CH1 0 ror
	2	0.0	0.0	3	0.0	0.49	0.0	0.0	5576.032162842432;	%CH1 0 solar
	2	373165.07586206903	149266.03034482762	3	0.0	1903.9034482758625	0.0	0.0	124078.57953443394;	%CZ1 0 CCGT
	2	514048.2439024391	205619.29756097565	3	0.0	2622.69512195122	0.0	0.0	56503.14681164207;	%CZ1 0 OCGT
	2	165579.16666666663	66231.66666666666	3	0.0	602.1060606060606	0.0	0.0	538348.6370048318;	%CZ1 0 lignite
	2	696950.7575757576	278780.30303030304	3	0.0	557.5606060606061	0.0	0.0	3953408.472794405;	%CZ1 0 nuclear
	2	0.0	0.0	3	0.0	0.735	0.0	0.0	20423.735558581873;	%CZ1 0 onwind
	2	0.0	0.0	3	0.0	0.0	0.0	0.0	43505.096639250965;	%CZ1 0 ror
	2	0.0	0.0	3	0.0	0.48999999999999994	0.0	0.0	5576.032162842432;	%CZ1 0 solar
	2	423222.20356863114	169288.88142745246	3	0.0	2159.2969569828115	0.0	0.0	124078.57953443394;	%DE1 0 CCGT
	2	469414.60315604124	187765.8412624165	3	0.0	2394.972465081843	0.0	0.0	56503.14681164207;	%DE1 0 OCGT
	2	3728.4829787234044	1491.3931914893617	3	0.0	729.7872340425532	0.0	0.0	15554.874660326695;	%DE1 0 biomass
	2	308664.73079393426	123465.89231757371	3	0.0	1381.4365573994262	0.0	0.0	538348.6370048317;	%DE1 0 coal
	2	150860.1751440372	60344.07005761488	3	0.0	548.5824550692262	0.0	0.0	538348.6370048317;	%DE1 0 lignite
	2	0.0	0.0	3	0.0	0.735	0.0	0.0	20177.692760573416;	%DE1 0 offwind
	2	0.0	0.0	3	0.0	6772.435223357454	0.0	0.0	10591.721249587481;	%DE1 0 oil
	2	0.0	0.0	3	0.0	0.735	0.0	0.0	20423.735558581873;	%DE1 0 onwind
	2	0.0	0.0	3	0.0	0.0	0.0	0.0	43505.096639250965;	%DE1 0 ror
	2	0.0	0.0	3	0.0	0.48999999999999994	0.0	0.0	5576.032162842432;	%DE1 0 solar
	2	421073.18434281467	168429.27373712586	3	0.0	2148.332573177626	0.0	0.0	124078.57953443394;	%DK1 0 CCGT
	2	514048.2439024391	205619.29756097565	3	0.0	2622.69512195122	0.0	0.0	56503.14681164207;	%DK1 0 OCGT
	2	3728.4829787234044	1491.393191489362	3	0.0	729.7872340425532	0.0	0.0	15554.874660326695;	%DK1 0 biomass
	2	308712.76041666657	123485.10416666664	3	0.0	1381.651515151515	0.0	0.0	538348.6370048317;	%DK1 0 coal
	2	0.0	0.0	3	0.0	0.735	0.0	0.0	19482.403049885066;	%DK1 0 offwind
	2	0.0	0.0	3	0.0	0.735	0.0	0.0	20423.735558581873;	%DK1 0 onwind
	2	0.0	0.0	3	0.0	0.4900000000000001	0.0	0.0	5576.032162842433;	%DK1 0 solar
	2	373165.07586206903	149266.03034482762	3	0.0	1903.9034482758625	0.0	0.0	124078.57953443394;	%DK2 0 CCGT
	2	514048.2439024391	205619.29756097565	3	0.0	2622.69512195122	0.0	0.0	56503.14681164207;	%DK2 0 OCGT
	2	3728.4829787234044	1491.393191489362	3	0.0	729.7872340425532	0.0	0.0	15554.874660326695;	%DK2 0 biomass
	2	0.0	0.0	3	0.0	0.735	0.0	0.0	19022.144177078753;	%DK2 0 offwind
	2	0.0	0.0	3	0.0	0.7349999999999999	0.0	0.0	20423.735558581873;	%DK2 0 onwind
	2	0.0	0.0	3	0.0	0.4900000000000001	0.0	0.0	5576.032162842433;	%DK2 0 solar
	2	373165.07586206903	149266.03034482762	3	0.0	1903.9034482758625	0.0	0.0	124078.57953443394;	%EE6 0 CCGT
	2	514048.2439024391	205619.29756097565	3	0.0	2622.69512195122	0.0	0.0	56503.14681164207;	%EE6 0 OCGT
	2	0.0	0.0	3	0.0	0.735	0.0	0.0	19310.62406785195;	%EE6 0 offwind
	2	0.0	0.0	3	0.0	0.7349999999999998	0.0	0.0	20423.735558581873;	%EE6 0 onwind
	2	0.0	0.0	3	0.0	0.49	0.0	0.0	5576.032162842432;	%EE6 0 solar
	2	431872.6653931689	172749.06615726757	3	0.0	2203.4319662916782	0.0	0.0	124078.57953443394;	%ES1 0 CCGT
	2	514048.2439024392	205619.29756097568	3	0.0	2622.6951219512202	0.0	0.0	56503.14681164207;	%ES1 0 OCGT
	2	308712.76041666674	123485.10416666669	3	0.0	1381.6515151515152	0.0	0.0	538348.6370048318;	%ES1 0 coal
	2	696950.7575757576	278780.30303030304	3	0.0	557.5606060606061	0.0	0.0	3953408.472794405;	%ES1 0 nuclear
	2	0.0	0.0	3	0.0	0.735	0.0	0.0	19019.172491773305;	%ES1 0 offwind
	2	0.0	0.0	3	0.0	7294.0	0.0	0.0	10591.721249587481;	%ES1 0 oil
	2	0.0	0.0	3	0.0	0.7350000000000001	0.0	0.0	20423.735558581877;	%ES1 0 onwind
	2	0.0	0.0	3	0.0	0.0	0.0	0.0	43505.096639250965;	%ES1 0 ror
	2	0.0	0.0	3	0.0	0.4900000000000001	0.0	0.0	5576.032162842432;	%ES1 0 solar
	2	373165.07586206903	149266.03034482762	3	0.0	1903.9034482758625	0.0	0.0	124078.57953443394;	%ES4 0 CCGT
	2	514048.2439024391	205619.29756097565	3	0.0	2622.69512195122	0.0	0.0	56503.14681164207;	%ES4 0 OCGT
	2	0.0	0.0	3	0.0	0.735	0.0	0.0	18738.79471010407;	%ES4 0 offwind
	2	0.0	0.0	3	0.0	7294.0	0.0	0.0	10591.721249587481;	%ES4 0 oil
	2	0.0	0.0	3	0.0	0.7350000000000001	0.0	0.0	20423.735558581877;	%ES4 0 onwind
	2	0.0	0.0	3	0.0	0.49	0.0	0.0	5576.032162842432;	%ES4 0 solar
	2	338957.3442628556	135582.93770514225	3	0.0	1729.3742054227328	0.0	0.0	124078.57953443394;	%FI2 0 CCGT
	2	514048.2439024391	205619.29756097565	3	0.0	2622.69512195122	0.0	0.0	56503.14681164207;	%FI2 0 OCGT
	2	3728.4829787234044	1491.393191489362	3	0.0	729.7872340425532	0.0	0.0	15554.874660326695;	%FI2 0 biomass
	2	308712.7604166666	123485.10416666666	3	0.0	1381.651515151515	0.0	0.0	538348.6370048317;	%FI2 0 coal
	2	696950.7575757576	278780.30303030304	3	0.0	557.5606060606061	0.0	0.0	3953408.472794405;	%FI2 0 nuclear
	2	0.0	0.0	3	0.0	0.735	0.0	0.0	19182.483355121498;	%FI2 0 offwind
	2	0.0	0.0	3	0.0	0.7350000000000001	0.0	0.0	20423.735558581877;	%FI2 0 onwind
	2	0.0	0.0	3	0.0	0.0	0.0	0.0	43505.096639250965;	%FI2 0 ror
	2	0.0	0.0	3	0.0	0.4900000000000001	0.0	0.0	5576.032162842433;	%FI2 0 solar
	2	385979.09142010496	154391.63656804198	3	0.0	1969.2810786740047	0.0	0.0	124078.57953443394;	%FR1 0 CCGT
	2	514048.2439024392	205619.29756097568	3	0.0	2622.6951219512202	0.0	0.0	56503.14681164207;	%FR1 0 OCGT
	2	3728.4829787234044	1491.393191489362	3	0.0	729.7872340425532	0.0	0.0	15554.874660326695;	%FR1 0 biomass
	2	696950.7575757576	278780.30303030304	3	0.0	557.5606060606061	0.0	0.0	3953408.472794405;	%FR1 0 nuclear
	2	0.0	0.0	3	0.0	0.7349999999999999	0.0	0.0	18641.128720245626;	%FR1 0 offwind
	2	0.0	0.0	3	0.0	7294.0	0.0	0.0	10591.721249587481;	%FR1 0 oil
	2	0.0	0.0	3	0.0	0.7350000000000001	0.0	0.0	20423.735558581877;	%FR1 0 onwind
	2	0.0	0.0	3	0.0	0.0	0.0	0.0	43505.096639250965;	%FR1 0 ror
	2	0.0	0.0	3	0.0	0.4900000000000001	0.0	0.0	5576.032162842433;	%FR1 0 solar
	2	374049.0229577372	149619.6091830949	3	0.0	1908.4133824374346	0.0	0.0	124078.57953443394;	%GB0 0 CCGT
	2	514048.2439024391	205619.29756097565	3	0.0	2622.6951219512193	0.0	0.0	56503.146811642066;	%GB0 0 OCGT
	2	3728.4829787234057	1491.3931914893622	3	0.0	729.7872340425535	0.0	0.0	15554.874660326695;	%GB0 0 biomass
	2	308712.7604166666	123485.10416666666	3	0.0	1381.651515151515	0.0	0.0	538348.6370048317;	%GB0 0 coal
	2	696950.7575757576	278780.30303030304	3	0.0	557.5606060606061	0.0	0.0	3953408.472794405;	%GB0 0 nuclear
	2	0.0	0.0	3	0.0	0.735	0.0	0.0	19434.807152243633;	%GB0 0 offwind
	2	0.0	0.0	3	0.0	0.735	0.0	0.0	20423.735558581873;	%GB0 0 onwind
	2	0.0	0.0	3	0.0	0.0	0.0	0.0	43505.096639250965;	%GB0 0 ror
	2	0.0	0.0	3	0.0	0.49	0.0	0.0	5576.032162842432;	%GB0 0 solar
	2	373165.07586206903	149266.03034482762	3	0.0	1903.9034482758625	0.0	0.0	124078.57953443394;	%GB5 0 CCGT
	2	514048.2439024391	205619.29756097565	3	0.0	2622.6951219512193	0.0	0.0	56503.14681164207;	%GB5 0 OCGT
	2	3728.4829787234044	1491.393191489362	3	0.0	729.7872340425532	0.0	0.0	15554.874660326695;	%GB5 0 biomass
	2	0.0	0.0	3	0.0	0.735	0.0	0.0	20260.912599329233;	%GB5 0 offwind
	2	0.0	0.0	3	0.0	0.735	0.0	0.0	20423.735558581873;	%GB5 0 onwind
	2	0.0	0.0	3	0.0	0.49	0.0	0.0	5576.032162842432;	%GB5 0 solar
	2	391596.3755663939	156638.55022655756	3	0.0	1997.940691665275	0.0	0.0	124078.57953443394;	%GR1 0 CCGT
	2	514048.2439024391	205619.29756097565	3	0.0	2622.6951219512193	0.0	0.0	56503.146811642066;	%GR1 0 OCGT
	2	165579.16666666663	66231.66666666666	3	0.0	602.1060606060606	0.0	0.0	538348.6370048317;	%GR1 0 lignite
	2	0.0	0.0	3	0.0	0.735	0.0	0.0	19900.443807953885;	%GR1 0 offwind
	2	0.0	0.0	3	0.0	7294.0	0.0	0.0	10591.721249587481;	%GR1 0 oil
	2	0.0	0.0	3	0.0	0.735	0.0	0.0	20423.735558581873;	%GR1 0 onwind
	2	0.0	0.0	3	0.0	0.0	0.0	0.0	43505.09663925098;	%GR1 0 ror
	2	0.0	0.0	3	0.0	0.48999999999999994	0.0	0.0	5576.032162842432;	%GR1 0 solar
	2	373165.07586206903	149266.03034482762	3	0.0	1903.9034482758625	0.0	0.0	124078.57953443394;	%HR1 0 CCGT
	2	514048.2439024391	205619.29756097565	3	0.0	2622.69512195122	0.0	0.0	56503.14681164207;	%HR1 0 OCGT
	2	0.0	0.0	3	0.0	0.735	0.0	0.0	18728.27082557742;	%HR1 0 offwind
	2	0.0	0.0	3	0.0	0.735	0.0	0.0	20423.735558581873;	%HR1 0 onwind
	2	0.0	0.0	3	0.0	0.0	0.0	0.0	43505.096639250965;	%HR1 0 ror
	2	0.0	0.0	3	0.0	0.49	0.0	0.0	5576.032162842432;	%HR1 0 solar
	2	371769.34586021357	148707.73834408543	3	0.0	1896.7823768378244	0.0	0.0	124078.57953443394;	%HU1 0 CCGT
	2	514048.2439024391	205619.29756097565	3	0.0	2622.6951219512193	0.0	0.0	56503.146811642066;	%HU1 0 OCGT
	2	308712.7604166666	123485.10416666666	3	0.0	1381.651515151515	0.0	0.0	538348.6370048317;	%HU1 0 coal
	2	696950.7575757576	278780.30303030304	3	0.0	557.5606060606061	0.0	0.0	3953408.472794405;	%HU1 0 nuclear
	2	0.0	0.0	3	0.0	7294.0	0.0	0.0	10591.721249587481;	%HU1 0 oil
	2	0.0	0.0	3	0.0	0.7349999999999999	0.0	0.0	20423.735558581873;	%HU1 0 onwind
	2	0.0	0.0	3	0.0	0.0	0.0	0.0	43505.096639250965;	%HU1 0 ror
	2	0.0	0.0	3	0.0	0.49	0.0	0.0	5576.032162842432;	%HU1 0 solar
	2	445248.10664865794	178099.24265946317	3	0.0	2271.6740135135606	0.0	0.0	124078.57953443391;	%IE5 0 CCGT
	2	514048.2439024392	205619.29756097568	3	0.0	2622.6951219512202	0.0	0.0	56503.14681164207;	%IE5 0 OCGT
	2	165579.1666666667	66231.66666666667	3	0.0	602.1060606060606	0.0	0.0	538348.6370048318;	%IE5 0 lignite
	2	0.0	0.0	3	0.0	0.735	0.0	0.0	19495.97785949055;	%IE5 0 offwind
	2	0.0	0.0	3	0.0	7294.0	0.0	0.0	10591.721249587481;	%IE5 0 oil
	2	0.0	0.0	3	0.0	0.735	0.0	0.0	20423.735558581877;	%IE5 0 onwind
	2	0.0	0.0	3	0.0	0.0	0.0	0.0	43505.096639250965;	%IE5 0 ror
	2	0.0	0.0	3	0.0	0.49	0.0	0.0	5576.032162842432;	%IE5 0 solar
	2	448399.6640363983	179359.86561455933	3	0.0	2287.7533879408074	0.0	0.0	124078.57953443394;	%IT1 0 CCGT
	2	514048.2439024391	205619.29756097565	3	0.0	2622.6951219512193	0.0	0.0	56503.146811642066;	%IT1 0 OCGT
	2	3728.4829787234053	1491.393191489362	3	0.0	729.7872340425533	0.0	0.0	15554.874660326695;	%IT1 0 biomass
	2	0.0	0.0	3	0.0	0.0	0.0	0.0	110386.76226945163;	%IT1 0 geothermal
	2	0.0	0.0	3	0.0	0.735	0.0	0.0	18645.338800775033;	%IT1 0 offwind
	2	0.0	0.0	3	0.0	0.7349999999999999	0.0	0.0	20423.735558581873;	%IT1 0 onwind
	2	0.0	0.0	3	0.0	0.0	0.0	0.0	43505.096639250965;	%IT1 0 ror
	2	0.0	0.0	3	0.0	0.49	0.0	0.0	5576.032162842432;	%IT1 0 solar
	2	373165.07586206903	149266.03034482762	3	0.0	1903.9034482758625	0.0	0.0	124078.57953443394;	%IT3 0 CCGT
	2	514048.2439024391	205619.29756097565	3	0.0	2622.69512195122	0.0	0.0	56503.14681164207;	%IT3 0 OCGT
	2	3728.4829787234044	1491.393191489362	3	0.0	729.7872340425532	0.0	0.0	15554.874660326695;	%IT3 0 biomass
	2	0.0	0.0	3	0.0	0.7349999999999999	0.0	0.0	17600.19935347035;	%IT3 0 offwind
	2	0.0	0.0	3	0.0	7294.0	0.0	0.0	10591.721249587481;	%IT3 0 oil
	2	0.0	0.0	3	0.0	0.735	0.0	0.0	20423.735558581873;	%IT3 0 onwind
	2	0.0	0.0	3	0.0	0.0	0.0	0.0	43505.096639250965;	%IT3 0 ror
	2	0.0	0.0	3	0.0	0.49	0.0	0.0	5576.032162842432;	%IT3 0 solar
	2	373165.07586206903	149266.03034482762	3	0.0	1903.9034482758625	0.0	0.0	124078.57953443394;	%LT6 0 CCGT
	2	514048.2439024391	205619.29756097565	3	0.0	2622.69512195122	0.0	0.0	56503.14681164207;	%LT6 0 OCGT
	2	0.0	0.0	3	0.0	0.735	0.0	0.0	18629.122326126548;	%LT6 0 offwind
	2	0.0	0.0	3	0.0	0.7349999999999998	0.0	0.0	20423.735558581873;	%LT6 0 onwind
	2	0.0	0.0	3	0.0	0.0	0.0	0.0	43505.096639250965;	%LT6 0 ror
	2	0.0	0.0	3	0.0	0.4900000000000001	0.0	0.0	5576.032162842433;	%LT6 0 solar
	2	373165.07586206903	149266.03034482762	3	0.0	1903.9034482758625	0.0	0.0	124078.57953443394;	%LU1 0 CCGT
	2	514048.2439024391	205619.29756097565	3	0.0	2622.69512195122	0.0	0.0	56503.14681164207;	%LU1 0 OCGT
	2	3728.4829787234044	1491.393191489362	3	0.0	729.7872340425532	0.0	0.0	15554.874660326695;	%LU1 0 biomass
	2	0.0	0.0	3	0.0	0.735	0.0	0.0	20423.735558581873;	%LU1 0 onwind
	2	0.0	0.0	3	0.0	0.0	0.0	0.0	43505.096639250965;	%LU1 0 ror
	2	0.0	0.0	3	0.0	0.49	0.0	0.0	5576.032162842432;	%LU1 0 solar
	2	373165.07586206903	149266.03034482762	3	0.0	1903.9034482758625	0.0	0.0	124078.57953443394;	%LV6 0 CCGT
	2	514048.2439024391	205619.29756097565	3	0.0	2622.69512195122	0.0	0.0	56503.14681164207;	%LV6 0 OCGT
	2	0.0	0.0	3	0.0	0.735	0.0	0.0	18900.233305916245;	%LV6 0 offwind
	2	0.0	0.0	3	0.0	0.7349999999999999	0.0	0.0	20423.735558581873;	%LV6 0 onwind
	2	0.0	0.0	3	0.0	0.0	0.0	0.0	43505.096639250965;	%LV6 0 ror
	2	0.0	0.0	3	0.0	0.4900000000000001	0.0	0.0	5576.032162842432;	%LV6 0 solar
	2	373165.07586206903	149266.03034482762	3	0.0	1903.9034482758625	0.0	0.0	124078.57953443394;	%ME1 0 CCGT
	2	514048.2439024391	205619.29756097565	3	0.0	2622.69512195122	0.0	0.0	56503.14681164207;	%ME1 0 OCGT
	2	165579.16666666663	66231.66666666666	3	0.0	602.1060606060606	0.0	0.0	538348.6370048317;	%ME1 0 lignite
	2	0.0	0.0	3	0.0	0.7349999999999999	0.0	0.0	17963.741278385813;	%ME1 0 offwind
	2	0.0	0.0	3	0.0	0.735	0.0	0.0	20423.735558581873;	%ME1 0 onwind
	2	0.0	0.0	3	0.0	0.0	0.0	0.0	43505.096639250965;	%ME1 0 ror
	2	0.0	0.0	3	0.0	0.49	0.0	0.0	5576.032162842432;	%ME1 0 solar
	2	373165.07586206903	149266.03034482762	3	0.0	1903.9034482758625	0.0	0.0	124078.57953443394;	%MK1 0 CCGT
	2	514048.2439024391	205619.29756097565	3	0.0	2622.69512195122	0.0	0.0	56503.14681164207;	%MK1 0 OCGT
	2	0.0	0.0	3	0.0	0.735	0.0	0.0	20423.735558581873;	%MK1 0 onwind
	2	0.0	0.0	3	0.0	0.48999999999999994	0.0	0.0	5576.032162842432;	%MK1 0 solar
	2	453986.94714009535	181594.77885603815	3	0.0	2316.2599343882416	0.0	0.0	124078.57953443394;	%NL1 0 CCGT
	2	514048.2439024391	205619.29756097565	3	0.0	2622.69512195122	0.0	0.0	56503.14681164207;	%NL1 0 OCGT
...
];
%% branch data
%	fbus	tbus	r	x	b	rateA	rateB	rateC	ratio	angle	status	angmin	angmax
mpc.branch = [
	1	18	0.009848253769131014	0.08075568090687432	2.055105533175459e-05	1698.1026117405274	1698.1026117405274	1698.1026117405274	0	0	1	-60	60;	%AL1 0 - GR1 0
	1	27	0.0030025768781929826	0.02462113040118246	1.0418231424248789e-05	2189.658630928575	2189.658630928575	2189.658630928575	0	0	1	-60	60;	%AL1 0 - ME1 0
	3	19	0.0018083930284160529	0.014828822833011634	3.763249569104315e-05	5362.429300233244	5362.429300233244	5362.429300233244	0	0	1	-60	60;	%BA1 0 - HR1 0
	3	27	0.0022858595658064302	0.018744048439612727	1.1892132809188925e-05	2681.214650116622	2681.214650116622	2681.214650116622	0	0	1	-60	60;	%BA1 0 - ME1 0
	3	34	0.004149698224123457	0.03402752543781235	1.439847111116458e-05	2189.658630928575	2189.658630928575	2189.658630928575	0	0	1	-60	60;	%BA1 0 - RS1 0
	4	15	0.0021392377588853096	0.01754174962285954	0.00013894357908419004	9473.625097078731	9473.625097078731	9473.625097078731	0	0	1	-60	60;	%BE1 0 - FR1 0
	4	25	0.007463517643991826	0.06120084468073299	5.220314041075356e-06	983.1120383760948	983.1120383760948	983.1120383760948	0	0	1	-60	60;	%BE1 0 - LU1 0
	4	29	0.0011984220022508625	0.009827060418457071	4.001332614924733e-05	6792.41044696211	6792.41044696211	6792.41044696211	0	0	1	-60	60;	%BE1 0 - NL1 0
	5	18	0.011809656492733411	0.09683918324041399	2.4644054643668527e-05	1698.1026117405274	1698.1026117405274	1698.1026117405274	0	0	1	-60	60;	%BG1 0 - GR1 0
	5	28	0.0074365203689532805	0.0609794670254169	1.5518318796486916e-05	1698.1026117405274	1698.1026117405274	1698.1026117405274	0	0	1	-60	60;	%BG1 0 - MK1 0
	5	33	0.0020229105724174743	0.016587866693823287	6.754163420971416e-05	6792.41044696211	6792.41044696211	6792.41044696211	0	0	1	-60	60;	%BG1 0 - RO1 0
	5	34	0.009266320797298841	0.07598383053785052	1.9336694188768876e-05	1698.1026117405274	1698.1026117405274	1698.1026117405274	0	0	1	-60	60;	%BG1 0 - RS1 0
	1	28	0.003649247216798554	0.02992382717774814	7.615145103871138e-06	1698.1026117405274	1698.1026117405274	1698.1026117405274	0	0	1	-60	60;	%AL1 0 - MK1 0
	6	8	0.0007631703989934744	0.006257997271746491	0.00040769593381994505	27169.64178784844	27169.64178784844	27169.64178784844	0	0	1	-60	60;	%CH1 0 - DE1 0
	6	15	0.001746686959247153	0.014322833065826655	0.00011995981004979816	9741.746562090395	9741.746562090395	9741.746562090395	0	0	1	-60	60;	%CH1 0 - FR1 0
	6	22	0.0024168599665192895	0.019818251725458175	0.00011953708173841214	8267.078504526253	8267.078504526253	8267.078504526253	0	0	1	-60	60;	%CH1 0 - IT1 0
	7	8	0.002780890333632855	0.022803300735789414	9.284932327339585e-05	6792.41044696211	6792.41044696211	6792.41044696211	0	0	1	-60	60;	%CZ1 0 - DE1 0
	7	31	0.003347784363454365	0.02745183178032579	4.6464078918691116e-05	4379.31726185715	4379.31726185715	4379.31726185715	0	0	1	-60	60;	%CZ1 0 - PL1 0
	7	37	0.0022035110440118957	0.018068790560897545	5.889802779608092e-05	6077.419873597678	6077.419873597678	6077.419873597678	0	0	1	-60	60;	%CZ1 0 - SK1 0
	8	9	0.0055751311403673546	0.04571607535101231	7.737754441889767e-05	4379.31726185715	4379.31726185715	4379.31726185715	0	0	1	-60	60;	%DE1 0 - DK1 0
	8	15	0.003052301449510847	0.02502887188598894	0.00019824710277172852	9473.625097078731	9473.625097078731	9473.625097078731	0	0	1	-60	60;	%DE1 0 - FR1 0
	8	25	0.003567833648762204	0.02925623591985007	3.056988125714905e-05	3440.892134316332	3440.892134316332	3440.892134316332	0	0	1	-60	60;	%DE1 0 - LU1 0
	8	29	0.0010137080559796212	0.008312406059032893	0.00013538413342828915	13584.82089392422	13584.82089392422	13584.82089392422	0	0	1	-60	60;	%DE1 0 - NL1 0
	1	34	0.005794692518950292	0.047516478655392394	2.010621214505574e-05	2189.658630928575	2189.658630928575	2189.658630928575	0	0	1	-60	60;	%AL1 0 - RS1 0
	8	31	0.004353603674522505	0.03569955013108455	0.00014535961741861056	6792.41044696211	6792.41044696211	6792.41044696211	0	0	1	-60	60;	%DE1 0 - PL1 0
	10	35	0.008840156449238027	0.07248928288375181	7.378954628448345e-05	3396.205223481055	3396.205223481055	3396.205223481055	0	0	1	-60	60;	%DK2 0 - SE2 0
	11	26	0.003946355190980939	0.0323601125660437	2.5984323908562167e-05	3016.3664813811993	3016.3664813811993	3016.3664813811993	0	0	1	-60	60;	%EE6 0 - LV6 0
	12	15	0.008738359575119186	0.07165454851597733	0.00012128016169455197	4379.31726185715	4379.31726185715	4379.31726185715	0	0	1	-60	60;	%ES1 0 - FR1 0
	12	32	0.0012062259975185962	0.00989105317965249	0.00019796854473826301	15059.488951488362	15059.488951488362	15059.488951488362	0	0	1	-60	60;	%ES1 0 - PT1 0
	14	35	0.00638205563753237	0.052332856227765435	5.3271567371009e-05	3396.205223481055	3396.205223481055	3396.205223481055	0	0	1	-60	60;	%FI2 0 - SE2 0
	15	22	0.005999890024650515	0.04919909820213423	0.0001354786999209816	5585.86385440963	5585.86385440963	5585.86385440963	0	0	1	-60	60;	%FR1 0 - IT1 0
	17	21	0.010361795849826232	0.08496672596857512	7.2474978884987885e-06	983.1120383760948	983.1120383760948	983.1120383760948	0	0	1	-60	60;	%GB5 0 - IE5 0
	18	28	0.004004202725752439	0.03283446235117	3.342342458088874e-05	3396.205223481055	3396.205223481055	3396.205223481055	0	0	1	-60	60;	%GR1 0 - MK1 0
	19	20	0.001988073686819386	0.016302204231918964	6.637848828712408e-05	6792.41044696211	6792.41044696211	6792.41044696211	0	0	1	-60	60;	%HR1 0 - HU1 0
	2	6	0.0026944375762084686	0.022094388124909443	8.996280886292391e-05	6792.41044696211	6792.41044696211	6792.41044696211	0	0	1	-60	60;	%AT1 0 - CH1 0
	19	34	0.009775397280548185	0.08015825770049513	2.0399020487482383e-05	1698.1026117405274	1698.1026117405274	1698.1026117405274	0	0	1	-60	60;	%HR1 0 - RS1 0
	19	36	0.001061017767836014	0.008700345696255314	2.8360127421173892e-05	6077.419873597677	6077.419873597677	6077.419873597677	0	0	1	-60	60;	%HR1 0 - SI1 0
	20	33	0.006636093665607568	0.054415968057982045	5.539204464291175e-05	3396.205223481055	3396.205223481055	3396.205223481055	0	0	1	-60	60;	%HU1 0 - RO1 0
	20	34	0.009655208499685108	0.07917270969741788	2.0148213964450305e-05	1698.1026117405274	1698.1026117405274	1698.1026117405274	0	0	1	-60	60;	%HU1 0 - RS1 0
	20	37	0.0020794721545383987	0.017051671667214868	1.7357532943642834e-05	3396.205223481055	3396.205223481055	3396.205223481055	0	0	1	-60	60;	%HU1 0 - SK1 0
	22	36	0.007514020690225535	0.06161496965984938	2.607187414447671e-05	2189.658630928575	2189.658630928575	2189.658630928575	0	0	1	-60	60;	%IT1 0 - SI1 0
	24	26	0.002102615191994796	0.017241444574357327	2.4612318201292353e-05	4021.8219751749325	4021.8219751749325	4021.8219751749325	0	0	1	-60	60;	%LT6 0 - LV6 0
	27	34	0.003126505250815498	0.025637343056687086	1.6265573015727845e-05	2681.214650116622	2681.214650116622	2681.214650116622	0	0	1	-60	60;	%ME1 0 - RS1 0
	28	34	0.003785008600601789	0.03103707052493467	3.1593792363861075e-05	3396.205223481055	3396.205223481055	3396.205223481055	0	0	1	-60	60;	%MK1 0 - RS1 0
	30	35	0.0024786328048168375	0.02032478899949807	9.516891246805635e-05	7283.966466150157	7283.966466150157	7283.966466150157	0	0	1	-60	60;	%NO2 0 - SE2 0
	2	7	0.0028351633943507356	0.02324833983367603	3.934938496653041e-05	4379.31726185715	4379.31726185715	4379.31726185715	0	0	1	-60	60;	%AT1 0 - CZ1 0
	31	37	0.004238372016881548	0.034754650538428696	3.5378055796455685e-05	3396.205223481055	3396.205223481055	3396.205223481055	0	0	1	-60	60;	%PL1 0 - SK1 0
	33	34	0.003324374066655655	0.027259867346576365	6.243488164499935e-05	5094.3078352215825	5094.3078352215825	5094.3078352215825	0	0	1	-60	60;	%RO1 0 - RS1 0
	2	8	0.0013316115224353564	0.010919214483969923	0.00024801282886009247	16042.600989864455	16042.600989864455	16042.600989864455	0	0	1	-60	60;	%AT1 0 - DE1 0
	2	20	0.004015691830712427	0.032928673011841894	5.573400251587286e-05	4379.31726185715	4379.31726185715	4379.31726185715	0	0	1	-60	60;	%AT1 0 - HU1 0
	2	22	0.04171419942875124	0.3420564353157602	7.2941885909999375e-06	491.5560191880474	491.5560191880474	491.5560191880474	0	0	1	-60	60;	%AT1 0 - IT1 0
	2	36	0.0020781020444500566	0.017040436764490463	2.2730714081766998e-05	3887.761242669102	3887.761242669102	3887.761242669102	0	0	1	-60	60;	%AT1 0 - SI1 0
];
%% dcline data
%	fbus	tbus	status	Pf	Pt	Qf	Qt	Vf	Vt	Pmin	Pmax	QminF	QmaxF	QminT	QmaxT	loss0	loss1
mpc.dcline = [
	22	18	1	0.0	0.0	0.0	0.0	1.0	1.0	-500.0	500.0	-500.0	500.0	-500.0	500.0	0.0	0.01;	%IT1 0 - GR1 0
	13	12	1	0.0	0.0	0.0	0.0	1.0	1.0	-400.0	400.0	-400.0	400.0	-400.0	400.0	0.0	0.01;	%ES4 0 - ES1 0
	22	23	1	0.0	0.0	0.0	0.0	1.0	1.0	-1000.0	1000.0	-1000.0	1000.0	-1000.0	1000.0	0.0	0.01;	%IT1 0 - IT3 0
	22	27	1	0.0	0.0	0.0	0.0	1.0	1.0	-1000.0	1000.0	-1000.0	1000.0	-1000.0	1000.0	0.0	0.01;	%IT1 0 - ME1 0
	15	12	1	0.0	0.0	0.0	0.0	1.0	1.0	-2000.0	2000.0	-2000.0	2000.0	-2000.0	2000.0	0.0	0.01;	%FR1 0 - ES1 0
	8	4	1	0.0	0.0	0.0	0.0	1.0	1.0	-1000.0	1000.0	-1000.0	1000.0	-1000.0	1000.0	0.0	0.01;	%DE1 0 - BE1 0
	16	29	1	0.0	0.0	0.0	0.0	1.0	1.0	-1000.0	1000.0	-1000.0	1000.0	-1000.0	1000.0	0.0	0.01;	%GB0 0 - NL1 0
	16	15	1	0.0	0.0	0.0	0.0	1.0	1.0	-2000.0	2000.0	-2000.0	2000.0	-2000.0	2000.0	0.0	0.01;	%GB0 0 - FR1 0
	24	35	1	0.0	0.0	0.0	0.0	1.0	1.0	-700.0	700.0	-700.0	700.0	-700.0	700.0	0.0	0.01;	%LT6 0 - SE2 0
	10	9	1	0.0	0.0	0.0	0.0	1.0	1.0	-600.0	600.0	-600.0	600.0	-600.0	600.0	0.0	0.01;	%DK2 0 - DK1 0
	10	8	1	0.0	0.0	0.0	0.0	1.0	1.0	-600.0	600.0	-600.0	600.0	-600.0	600.0	0.0	0.01;	%DK2 0 - DE1 0
	35	8	1	0.0	0.0	0.0	0.0	1.0	1.0	-600.0	600.0	-600.0	600.0	-600.0	600.0	0.0	0.01;	%SE2 0 - DE1 0
	31	35	1	0.0	0.0	0.0	0.0	1.0	1.0	-600.0	600.0	-600.0	600.0	-600.0	600.0	0.0	0.01;	%PL1 0 - SE2 0
	29	9	1	0.0	0.0	0.0	0.0	1.0	1.0	-700.0	700.0	-700.0	700.0	-700.0	700.0	0.0	0.01;	%NL1 0 - DK1 0
	29	30	1	0.0	0.0	0.0	0.0	1.0	1.0	-700.0	700.0	-700.0	700.0	-700.0	700.0	0.0	0.01;	%NL1 0 - NO2 0
	8	30	1	0.0	0.0	0.0	0.0	1.0	1.0	-1400.0	1400.0	-1400.0	1400.0	-1400.0	1400.0	0.0	0.01;	%DE1 0 - NO2 0
	16	17	1	0.0	0.0	0.0	0.0	1.0	1.0	-2501.0	2501.0	-2501.0	2501.0	-2501.0	2501.0	0.0	0.01;	%GB0 0 - GB5 0
	16	17	1	0.0	0.0	0.0	0.0	1.0	1.0	-250.0	250.0	-250.0	250.0	-250.0	250.0	0.0	0.01;	%GB0 0 - GB5 0
	16	21	1	0.0	0.0	0.0	0.0	1.0	1.0	-500.0	500.0	-500.0	500.0	-500.0	500.0	0.0	0.01;	%GB0 0 - IE5 0
	35	9	1	0.0	0.0	0.0	0.0	1.0	1.0	-250.0	250.0	-250.0	250.0	-250.0	250.0	0.0	0.01;	%SE2 0 - DK1 0
	35	9	1	0.0	0.0	0.0	0.0	1.0	1.0	-300.0	300.0	-300.0	300.0	-300.0	300.0	0.0	0.01;	%SE2 0 - DK1 0
	14	11	1	0.0	0.0	0.0	0.0	1.0	1.0	-600.0	600.0	-600.0	600.0	-600.0	600.0	0.0	0.01;	%FI2 0 - EE6 0
	14	11	1	0.0	0.0	0.0	0.0	1.0	1.0	-650.0	650.0	-650.0	650.0	-650.0	650.0	0.0	0.01;	%FI2 0 - EE6 0
	35	14	1	0.0	0.0	0.0	0.0	1.0	1.0	-800.0	800.0	-800.0	800.0	-800.0	800.0	0.0	0.01;	%SE2 0 - FI2 0
	35	14	1	0.0	0.0	0.0	0.0	1.0	1.0	-500.0	500.0	-500.0	500.0	-500.0	500.0	0.0	0.01;	%SE2 0 - FI2 0
	12	15	1	0.0	0.0	0.0	0.0	1.0	1.0	-2200.0	2200.0	-2200.0	2200.0	-2200.0	2200.0	0.0	0.01;	%ES1 0 - FR1 0
	22	15	1	0.0	0.0	0.0	0.0	1.0	1.0	-1000.0	1000.0	-1000.0	1000.0	-1000.0	1000.0	0.0	0.01;	%IT1 0 - FR1 0
	15	16	1	0.0	0.0	0.0	0.0	1.0	1.0	-1000.0	1000.0	-1000.0	1000.0	-1000.0	1000.0	0.0	0.01;	%FR1 0 - GB0 0
	16	4	1	0.0	0.0	0.0	0.0	1.0	1.0	-1000.0	1000.0	-1000.0	1000.0	-1000.0	1000.0	0.0	0.01;	%GB0 0 - BE1 0
	16	15	1	0.0	0.0	0.0	0.0	1.0	1.0	-1400.0	1400.0	-1400.0	1400.0	-1400.0	1400.0	0.0	0.01;	%GB0 0 - FR1 0
	16	9	1	0.0	0.0	0.0	0.0	1.0	1.0	-1400.0	1400.0	-1400.0	1400.0	-1400.0	1400.0	0.0	0.01;	%GB0 0 - DK1 0
	22	6	1	0.0	0.0	0.0	0.0	1.0	1.0	-1000.0	1000.0	-1000.0	1000.0	-1000.0	1000.0	0.0	0.01;	%IT1 0 - CH1 0
	30	16	1	0.0	0.0	0.0	0.0	1.0	1.0	-1400.0	1400.0	-1400.0	1400.0	-1400.0	1400.0	0.0	0.01;	%NO2 0 - GB0 0
	16	15	1	0.0	0.0	0.0	0.0	1.0	1.0	-2000.0	2000.0	-2000.0	2000.0	-2000.0	2000.0	0.0	0.01;	%GB0 0 - FR1 0
	16	15	1	0.0	0.0	0.0	0.0	1.0	1.0	-1400.0	1400.0	-1400.0	1400.0	-1400.0	1400.0	0.0	0.01;	%GB0 0 - FR1 0
	16	8	1	0.0	0.0	0.0	0.0	1.0	1.0	-1400.0	1400.0	-1400.0	1400.0	-1400.0	1400.0	0.0	0.01;	%GB0 0 - DE1 0
	21	16	1	0.0	0.0	0.0	0.0	1.0	1.0	-500.0	500.0	-500.0	500.0	-500.0	500.0	0.0	0.01;	%IE5 0 - GB0 0
	21	15	1	0.0	0.0	0.0	0.0	1.0	1.0	-700.0	700.0	-700.0	700.0	-700.0	700.0	0.0	0.01;	%IE5 0 - FR1 0
	31	24	1	0.0	0.0	0.0	0.0	1.0	1.0	-2000.0	2000.0	-2000.0	2000.0	-2000.0	2000.0	0.0	0.01;	%PL1 0 - LT6 0
	22	23	1	0.0	0.0	0.0	0.0	1.0	1.0	-300.0	300.0	-300.0	300.0	-300.0	300.0	0.0	0.01;	%IT1 0 - IT3 0
	8	35	1	0.0	0.0	0.0	0.0	1.0	1.0	-700.0	700.0	-700.0	700.0	-700.0	700.0	0.0	0.01;	%DE1 0 - SE2 0
	9	30	1	0.0	0.0	0.0	0.0	1.0	1.0	-1140.0	1140.0	-1140.0	1140.0	-1140.0	1140.0	0.0	0.01;	%DK1 0 - NO2 0
	30	16	1	0.0	0.0	0.0	0.0	1.0	1.0	-0.0	0.0	-0.0	0.0	-0.0	0.0	0.0	0.01;	%NO2 0 - GB0 0
];
